<?xml version="1.0" encoding="utf-8"?>
<!DOCTYPE population SYSTEM "http://www.matsim.org/files/dtd/population_v6.dtd">

<population>



<!-- ====================================================================== -->

	<person id="p_0">
		<plan score="44.90215098539659" selected="yes">
			<activity type="home" link="56127" x="605349.3862534402" y="5792515.7702133525" end_time="07:30:00" >
			</activity>
			<leg mode="drt" dep_time="07:30:00" trav_time="00:06:13">
				<route type="generic" start_link="56127" end_link="52060" trav_time="00:06:13" distance="3116.0336252932357"></route>
			</leg>
			<activity type="train08" link="52060" >
			</activity>
		</plan>

	</person>

<!-- ====================================================================== -->

	<person id="p_1">
		<plan score="44.08659542984103" selected="yes">
			<activity type="home" link="622" x="605298.0798831971" y="5792158.976873602" end_time="07:30:00" >
			</activity>
			<leg mode="drt" dep_time="07:30:00" trav_time="00:05:17">
				<route type="generic" start_link="622" end_link="52060" trav_time="00:05:17" distance="2648.3444991615843"></route>
			</leg>
			<activity type="train08" link="52060" >
			</activity>
		</plan>

	</person>

<!-- ====================================================================== -->

	<person id="p_10">
		<plan score="44.022150985396586" selected="yes">
			<activity type="home" link="70433" x="604907.1721179328" y="5792867.9361218475" end_time="07:30:00" >
			</activity>
			<leg mode="drt" dep_time="07:30:00" trav_time="00:07:01">
				<route type="generic" start_link="70433" end_link="52060" trav_time="00:07:01" distance="3511.7942285424806"></route>
			</leg>
			<activity type="train08" link="52060" >
			</activity>
		</plan>

	</person>

<!-- ====================================================================== -->

	<person id="p_11">
		<plan score="44.90215098539659" selected="yes">
			<activity type="home" link="28106" x="605075.6577551629" y="5792727.0496019935" end_time="07:30:00" >
			</activity>
			<leg mode="drt" dep_time="07:30:00" trav_time="00:06:40">
				<route type="generic" start_link="28106" end_link="52060" trav_time="00:06:40" distance="3338.831929209697"></route>
			</leg>
			<activity type="train08" link="52060" >
			</activity>
		</plan>

	</person>

<!-- ====================================================================== -->

	<person id="p_12">
		<plan score="44.90215098539659" selected="yes">
			<activity type="home" link="10489" x="605790.2982354182" y="5792540.563921053" end_time="07:30:00" >
			</activity>
			<leg mode="drt" dep_time="07:30:00" trav_time="00:06:37">
				<route type="generic" start_link="10489" end_link="52060" trav_time="00:06:37" distance="3308.6395703796566"></route>
			</leg>
			<activity type="train08" link="52060" >
			</activity>
		</plan>

	</person>

<!-- ====================================================================== -->

	<person id="p_13">
		<plan score="44.90215098539659" selected="yes">
			<activity type="home" link="10487" x="605713.2206549954" y="5792761.771026597" end_time="07:30:00" >
			</activity>
			<leg mode="drt" dep_time="07:30:00" trav_time="00:07:05">
				<route type="generic" start_link="10487" end_link="52060" trav_time="00:07:05" distance="3546.195472075373"></route>
			</leg>
			<activity type="train08" link="52060" >
			</activity>
		</plan>

	</person>

<!-- ====================================================================== -->

	<person id="p_14">
		<plan score="44.90215098539659" selected="yes">
			<activity type="home" link="51193" x="605540.7960237286" y="5792341.147805657" end_time="07:30:00" >
			</activity>
			<leg mode="drt" dep_time="07:30:00" trav_time="00:05:54">
				<route type="generic" start_link="51193" end_link="52060" trav_time="00:05:54" distance="2957.2533548552515"></route>
			</leg>
			<activity type="train08" link="52060" >
			</activity>
		</plan>

	</person>

<!-- ====================================================================== -->

	<person id="p_15">
		<plan score="44.90215098539659" selected="yes">
			<activity type="home" link="58737" x="605539.4120403705" y="5792754.059751427" end_time="07:30:00" >
			</activity>
			<leg mode="drt" dep_time="07:30:00" trav_time="00:06:56">
				<route type="generic" start_link="58737" end_link="52060" trav_time="00:06:56" distance="3473.47096524575"></route>
			</leg>
			<activity type="train08" link="52060" >
			</activity>
		</plan>

	</person>

<!-- ====================================================================== -->

	<person id="p_16">
		<plan score="44.90215098539659" selected="yes">
			<activity type="home" link="56137" x="605228.2964807817" y="5792670.575951872" end_time="07:30:00" >
			</activity>
			<leg mode="drt" dep_time="07:30:00" trav_time="00:06:34">
				<route type="generic" start_link="56137" end_link="52060" trav_time="00:06:34" distance="3287.6700546360457"></route>
			</leg>
			<activity type="train08" link="52060" >
			</activity>
		</plan>

	</person>

<!-- ====================================================================== -->

	<person id="p_17">
		<plan score="44.90215098539659" selected="yes">
			<activity type="home" link="58743" x="605379.3744509411" y="5792579.425755239" end_time="07:30:00" >
			</activity>
			<leg mode="drt" dep_time="07:30:00" trav_time="00:06:24">
				<route type="generic" start_link="58743" end_link="52060" trav_time="00:06:24" distance="3204.963274566997"></route>
			</leg>
			<activity type="train08" link="52060" >
			</activity>
		</plan>

	</person>

<!-- ====================================================================== -->

	<person id="p_18">
		<plan score="44.90215098539659" selected="yes">
			<activity type="home" link="56141" x="605467.9037376856" y="5792803.517046679" end_time="07:30:00" >
			</activity>
			<leg mode="drt" dep_time="07:30:00" trav_time="00:07:01">
				<route type="generic" start_link="56141" end_link="52060" trav_time="00:07:01" distance="3514.1200512771466"></route>
			</leg>
			<activity type="train08" link="52060" >
			</activity>
		</plan>

	</person>

<!-- ====================================================================== -->

	<person id="p_19">
		<plan score="44.90215098539659" selected="yes">
			<activity type="home" link="23546" x="605224.1219584837" y="5792093.545542796" end_time="07:30:00" >
			</activity>
			<leg mode="drt" dep_time="07:30:00" trav_time="00:05:05">
				<route type="generic" start_link="23546" end_link="52060" trav_time="00:05:05" distance="2546.209281455527"></route>
			</leg>
			<activity type="train08" link="52060" >
			</activity>
		</plan>

	</person>

<!-- ====================================================================== -->

	<person id="p_2">
		<plan score="44.90215098539659" selected="yes">
			<activity type="home" link="28420" x="605595.3306217864" y="5792534.050121427" end_time="07:30:00" >
			</activity>
			<leg mode="drt" dep_time="07:30:00" trav_time="00:06:26">
				<route type="generic" start_link="28420" end_link="52060" trav_time="00:06:26" distance="3217.7929522319478"></route>
			</leg>
			<activity type="train08" link="52060" >
			</activity>
		</plan>

	</person>

<!-- ====================================================================== -->

	<person id="p_20">
		<plan score="44.08659542984103" selected="yes">
			<activity type="home" link="45921" x="605067.3443388287" y="5792340.83601938" end_time="07:30:00" >
			</activity>
			<leg mode="drt" dep_time="07:30:00" trav_time="00:05:40">
				<route type="generic" start_link="45921" end_link="52060" trav_time="00:05:40" distance="2837.6228958106703"></route>
			</leg>
			<activity type="train08" link="52060" >
			</activity>
		</plan>

	</person>

<!-- ====================================================================== -->

	<person id="p_21">
		<plan score="44.11548431872992" selected="yes">
			<activity type="home" link="63120" x="605160.5931483501" y="5792230.433859197" end_time="07:30:00" >
			</activity>
			<leg mode="drt" dep_time="07:30:00" trav_time="00:05:25">
				<route type="generic" start_link="63120" end_link="52060" trav_time="00:05:25" distance="2708.8012196083064"></route>
			</leg>
			<activity type="train08" link="52060" >
			</activity>
		</plan>

	</person>

<!-- ====================================================================== -->

	<person id="p_22">
		<plan score="44.067706540952145" selected="yes">
			<activity type="home" link="17931" x="605306.4633598381" y="5792776.044769472" end_time="07:30:00" >
			</activity>
			<leg mode="drt" dep_time="07:30:00" trav_time="00:06:52">
				<route type="generic" start_link="17931" end_link="52060" trav_time="00:06:52" distance="3438.6800166360163"></route>
			</leg>
			<activity type="train08" link="52060" >
			</activity>
		</plan>

	</person>

<!-- ====================================================================== -->

	<person id="p_23">
		<plan score="44.90215098539659" selected="yes">
			<activity type="home" link="10394" x="605483.8151954048" y="5792410.928207866" end_time="07:30:00" >
			</activity>
			<leg mode="drt" dep_time="07:30:00" trav_time="00:06:02">
				<route type="generic" start_link="10394" end_link="52060" trav_time="00:06:02" distance="3023.765067625631"></route>
			</leg>
			<activity type="train08" link="52060" >
			</activity>
		</plan>

	</person>

<!-- ====================================================================== -->

	<person id="p_24">
		<plan score="44.90215098539659" selected="yes">
			<activity type="home" link="44824" x="605276.8855096151" y="5792919.476578155" end_time="07:30:00" >
			</activity>
			<leg mode="drt" dep_time="07:30:00" trav_time="00:07:14">
				<route type="generic" start_link="44824" end_link="52060" trav_time="00:07:14" distance="3616.9505624784674"></route>
			</leg>
			<activity type="train08" link="52060" >
			</activity>
		</plan>

	</person>

<!-- ====================================================================== -->

	<person id="p_25">
		<plan score="44.90215098539659" selected="yes">
			<activity type="home" link="19906" x="605011.3039236955" y="5792641.112487178" end_time="07:30:00" >
			</activity>
			<leg mode="drt" dep_time="07:30:00" trav_time="00:06:26">
				<route type="generic" start_link="19906" end_link="52060" trav_time="00:06:26" distance="3221.702921059016"></route>
			</leg>
			<activity type="train08" link="52060" >
			</activity>
		</plan>

	</person>

<!-- ====================================================================== -->

	<person id="p_26">
		<plan score="50.909981847188874" selected="yes">
			<activity type="home" link="56137" x="605095.0546861128" y="5792593.308140826" end_time="08:30:00" >
			</activity>
			<leg mode="drt" dep_time="08:30:00" trav_time="00:06:20">
				<route type="generic" start_link="56137" end_link="52060" trav_time="00:06:20" distance="3167.749409881086"></route>
			</leg>
			<activity type="train09" link="52060" >
			</activity>
		</plan>

	</person>

<!-- ====================================================================== -->

	<person id="p_27">
		<plan score="50.909981847188874" selected="yes">
			<activity type="home" link="56137" x="605095.0546861128" y="5792593.308140826" end_time="08:30:00" >
			</activity>
			<leg mode="drt" dep_time="08:30:00" trav_time="00:06:20">
				<route type="generic" start_link="56137" end_link="52060" trav_time="00:06:20" distance="3167.749409881086"></route>
			</leg>
			<activity type="train09" link="52060" >
			</activity>
		</plan>

	</person>

<!-- ====================================================================== -->

	<person id="p_28">
		<plan score="50.909981847188874" selected="yes">
			<activity type="home" link="41025" x="605545.971803699" y="5792613.924685021" end_time="08:30:00" >
			</activity>
			<leg mode="drt" dep_time="08:30:00" trav_time="00:06:35">
				<route type="generic" start_link="41025" end_link="52060" trav_time="00:06:35" distance="3299.631959074999"></route>
			</leg>
			<activity type="train09" link="52060" >
			</activity>
		</plan>

	</person>

<!-- ====================================================================== -->

	<person id="p_29">
		<plan score="50.909981847188874" selected="yes">
			<activity type="home" link="2939" x="605285.1906389364" y="5792515.90091033" end_time="08:30:00" >
			</activity>
			<leg mode="drt" dep_time="08:30:00" trav_time="00:06:12">
				<route type="generic" start_link="2939" end_link="52060" trav_time="00:06:12" distance="3100.6690354852985"></route>
			</leg>
			<activity type="train09" link="52060" >
			</activity>
		</plan>

	</person>

<!-- ====================================================================== -->

	<person id="p_3">
		<plan score="44.90215098539659" selected="yes">
			<activity type="home" link="66867" x="605626.4635400488" y="5792829.151260136" end_time="07:30:00" >
			</activity>
			<leg mode="drt" dep_time="07:30:00" trav_time="00:07:11">
				<route type="generic" start_link="66867" end_link="52060" trav_time="00:07:11" distance="3597.262871049831"></route>
			</leg>
			<activity type="train08" link="52060" >
			</activity>
		</plan>

	</person>

<!-- ====================================================================== -->

	<person id="p_30">
		<plan score="50.909981847188874" selected="yes">
			<activity type="home" link="10479" x="605819.0399870985" y="5792403.495988668" end_time="08:30:00" >
			</activity>
			<leg mode="drt" dep_time="08:30:00" trav_time="00:06:18">
				<route type="generic" start_link="10479" end_link="52060" trav_time="00:06:18" distance="3157.479252224075"></route>
			</leg>
			<activity type="train09" link="52060" >
			</activity>
		</plan>

	</person>

<!-- ====================================================================== -->

	<person id="p_31">
		<plan score="50.909981847188874" selected="yes">
			<activity type="home" link="62664" x="605607.7356171929" y="5792926.8008502815" end_time="08:30:00" >
			</activity>
			<leg mode="drt" dep_time="08:30:00" trav_time="00:07:25">
				<route type="generic" start_link="62664" end_link="52060" trav_time="00:07:25" distance="3713.2194918518126"></route>
			</leg>
			<activity type="train09" link="52060" >
			</activity>
		</plan>

	</person>

<!-- ====================================================================== -->

	<person id="p_32">
		<plan score="50.909981847188874" selected="yes">
			<activity type="home" link="58257" x="605513.5815168617" y="5792973.664522586" end_time="08:30:00" >
			</activity>
			<leg mode="drt" dep_time="08:30:00" trav_time="00:07:29">
				<route type="generic" start_link="58257" end_link="52060" trav_time="00:07:29" distance="3742.9708416093754"></route>
			</leg>
			<activity type="train09" link="52060" >
			</activity>
		</plan>

	</person>

<!-- ====================================================================== -->

	<person id="p_33">
		<plan score="50.909981847188874" selected="yes">
			<activity type="home" link="51197" x="605393.956367835" y="5792226.51248246" end_time="08:30:00" >
			</activity>
			<leg mode="drt" dep_time="08:30:00" trav_time="00:05:31">
				<route type="generic" start_link="51197" end_link="52060" trav_time="00:05:31" distance="2762.1932089428187"></route>
			</leg>
			<activity type="train09" link="52060" >
			</activity>
		</plan>

	</person>

<!-- ====================================================================== -->

	<person id="p_34">
		<plan score="50.909981847188874" selected="yes">
			<activity type="home" link="65637" x="604964.6292773379" y="5792756.079129105" end_time="08:30:00" >
			</activity>
			<leg mode="drt" dep_time="08:30:00" trav_time="00:06:44">
				<route type="generic" start_link="65637" end_link="52060" trav_time="00:06:44" distance="3368.2269138740317"></route>
			</leg>
			<activity type="train09" link="52060" >
			</activity>
		</plan>

	</person>

<!-- ====================================================================== -->

	<person id="p_35">
		<plan score="50.909981847188874" selected="yes">
			<activity type="home" link="62660" x="605483.1449775675" y="5792873.751956497" end_time="08:30:00" >
			</activity>
			<leg mode="drt" dep_time="08:30:00" trav_time="00:07:12">
				<route type="generic" start_link="62660" end_link="52060" trav_time="00:07:12" distance="3607.5472544483796"></route>
			</leg>
			<activity type="train09" link="52060" >
			</activity>
		</plan>

	</person>

<!-- ====================================================================== -->

	<person id="p_36">
		<plan score="50.909981847188874" selected="yes">
			<activity type="home" link="62662" x="605595.8820287032" y="5792892.30039285" end_time="08:30:00" >
			</activity>
			<leg mode="drt" dep_time="08:30:00" trav_time="00:07:19">
				<route type="generic" start_link="62662" end_link="52060" trav_time="00:07:19" distance="3665.9149481659183"></route>
			</leg>
			<activity type="train09" link="52060" >
			</activity>
		</plan>

	</person>

<!-- ====================================================================== -->

	<person id="p_37">
		<plan score="50.00664851385554" selected="yes">
			<activity type="home" link="7376" x="605832.9930294477" y="5792550.696559071" end_time="08:30:00" >
			</activity>
			<leg mode="drt" dep_time="08:30:00" trav_time="00:06:40">
				<route type="generic" start_link="7376" end_link="52060" trav_time="00:06:40" distance="3341.275700300609"></route>
			</leg>
			<activity type="train09" link="52060" >
			</activity>
		</plan>

	</person>

<!-- ====================================================================== -->

	<person id="p_38">
		<plan score="50.909981847188874" selected="yes">
			<activity type="home" link="7265" x="604820.0885309075" y="5792792.697905226" end_time="08:30:00" >
			</activity>
			<leg mode="drt" dep_time="08:30:00" trav_time="00:06:49">
				<route type="generic" start_link="7265" end_link="52060" trav_time="00:06:49" distance="3414.3665112940266"></route>
			</leg>
			<activity type="train09" link="52060" >
			</activity>
		</plan>

	</person>

<!-- ====================================================================== -->

	<person id="p_39">
		<plan score="50.909981847188874" selected="yes">
			<activity type="home" link="10485" x="605598.6933381098" y="5792768.557991487" end_time="08:30:00" >
			</activity>
			<leg mode="drt" dep_time="08:30:00" trav_time="00:07:01">
				<route type="generic" start_link="10485" end_link="52060" trav_time="00:07:01" distance="3511.6594980214436"></route>
			</leg>
			<activity type="train09" link="52060" >
			</activity>
		</plan>

	</person>

<!-- ====================================================================== -->

	<person id="p_4">
		<plan score="44.90215098539659" selected="yes">
			<activity type="home" link="58739" x="605531.5884349413" y="5792691.838185306" end_time="07:30:00" >
			</activity>
			<leg mode="drt" dep_time="07:30:00" trav_time="00:06:47">
				<route type="generic" start_link="58739" end_link="52060" trav_time="00:06:47" distance="3392.6211249955527"></route>
			</leg>
			<activity type="train08" link="52060" >
			</activity>
		</plan>

	</person>

<!-- ====================================================================== -->

	<person id="p_40">
		<plan score="50.909981847188874" selected="yes">
			<activity type="home" link="56137" x="605128.4636340146" y="5792595.663573134" end_time="08:30:00" >
			</activity>
			<leg mode="drt" dep_time="08:30:00" trav_time="00:06:21">
				<route type="generic" start_link="56137" end_link="52060" trav_time="00:06:21" distance="3175.0598068261256"></route>
			</leg>
			<activity type="train09" link="52060" >
			</activity>
		</plan>

	</person>

<!-- ====================================================================== -->

	<person id="p_41">
		<plan score="50.01553740274443" selected="yes">
			<activity type="home" link="56139" x="605319.3563214879" y="5792715.091140901" end_time="08:30:00" >
			</activity>
			<leg mode="drt" dep_time="08:30:00" trav_time="00:06:43">
				<route type="generic" start_link="56139" end_link="52060" trav_time="00:06:43" distance="3363.395797433367"></route>
			</leg>
			<activity type="train09" link="52060" >
			</activity>
		</plan>

	</person>

<!-- ====================================================================== -->

	<person id="p_42">
		<plan score="50.909981847188874" selected="yes">
			<activity type="home" link="56131" x="605418.6909630515" y="5792355.991494686" end_time="08:30:00" >
			</activity>
			<leg mode="drt" dep_time="08:30:00" trav_time="00:05:51">
				<route type="generic" start_link="56131" end_link="52060" trav_time="00:05:51" distance="2933.276152021301"></route>
			</leg>
			<activity type="train09" link="52060" >
			</activity>
		</plan>

	</person>

<!-- ====================================================================== -->

	<person id="p_43">
		<plan score="50.909981847188874" selected="yes">
			<activity type="home" link="62664" x="605627.825748889" y="5792992.293878385" end_time="08:30:00" >
			</activity>
			<leg mode="drt" dep_time="08:30:00" trav_time="00:07:36">
				<route type="generic" start_link="62664" end_link="52060" trav_time="00:07:36" distance="3802.21587033921"></route>
			</leg>
			<activity type="train09" link="52060" >
			</activity>
		</plan>

	</person>

<!-- ====================================================================== -->

	<person id="p_44">
		<plan score="50.909981847188874" selected="yes">
			<activity type="home" link="63122" x="605227.2346587236" y="5792289.565638262" end_time="08:30:00" >
			</activity>
			<leg mode="drt" dep_time="08:30:00" trav_time="00:05:35">
				<route type="generic" start_link="63122" end_link="52060" trav_time="00:05:35" distance="2797.929547436628"></route>
			</leg>
			<activity type="train09" link="52060" >
			</activity>
		</plan>

	</person>

<!-- ====================================================================== -->

	<person id="p_45">
		<plan score="50.909981847188874" selected="yes">
			<activity type="home" link="37568" x="605144.6330765486" y="5792141.766976007" end_time="08:30:00" >
			</activity>
			<leg mode="drt" dep_time="08:30:00" trav_time="00:05:11">
				<route type="generic" start_link="37568" end_link="52060" trav_time="00:05:11" distance="2591.7762932317887"></route>
			</leg>
			<activity type="train09" link="52060" >
			</activity>
		</plan>

	</person>

<!-- ====================================================================== -->

	<person id="p_46">
		<plan score="49.918870736077764" selected="yes">
			<activity type="home" link="66867" x="605599.5118145664" y="5792804.574196706" end_time="08:30:00" >
			</activity>
			<leg mode="drt" dep_time="08:30:00" trav_time="00:07:06">
				<route type="generic" start_link="66867" end_link="52060" trav_time="00:07:06" distance="3557.0608707074034"></route>
			</leg>
			<activity type="train09" link="52060" >
			</activity>
		</plan>

	</person>

<!-- ====================================================================== -->

	<person id="p_47">
		<plan score="50.01553740274443" selected="yes">
			<activity type="home" link="56139" x="605395.5773886736" y="5792731.503156391" end_time="08:30:00" >
			</activity>
			<leg mode="drt" dep_time="08:30:00" trav_time="00:06:48">
				<route type="generic" start_link="56139" end_link="52060" trav_time="00:06:48" distance="3402.828367981756"></route>
			</leg>
			<activity type="train09" link="52060" >
			</activity>
		</plan>

	</person>

<!-- ====================================================================== -->

	<person id="p_48">
		<plan score="50.00664851385554" selected="yes">
			<activity type="home" link="7376" x="605851.2872008492" y="5792540.032561101" end_time="08:30:00" >
			</activity>
			<leg mode="drt" dep_time="08:30:00" trav_time="00:06:40">
				<route type="generic" start_link="7376" end_link="52060" trav_time="00:06:40" distance="3337.417935282475"></route>
			</leg>
			<activity type="train09" link="52060" >
			</activity>
		</plan>

	</person>

<!-- ====================================================================== -->

	<person id="p_49">
		<plan score="49.92664851385554" selected="yes">
			<activity type="home" link="66867" x="605687.9240635644" y="5792831.322879852" end_time="08:30:00" >
			</activity>
			<leg mode="drt" dep_time="08:30:00" trav_time="00:07:14">
				<route type="generic" start_link="66867" end_link="52060" trav_time="00:07:14" distance="3622.5546129851036"></route>
			</leg>
			<activity type="train09" link="52060" >
			</activity>
		</plan>

	</person>

<!-- ====================================================================== -->

	<person id="p_5">
		<plan score="44.90215098539659" selected="yes">
			<activity type="home" link="23546" x="605206.7485900462" y="5792102.16886315" end_time="07:30:00" >
			</activity>
			<leg mode="drt" dep_time="07:30:00" trav_time="00:05:06">
				<route type="generic" start_link="23546" end_link="52060" trav_time="00:05:06" distance="2553.295257229272"></route>
			</leg>
			<activity type="train08" link="52060" >
			</activity>
		</plan>

	</person>

<!-- ====================================================================== -->

	<person id="p_6">
		<plan score="44.90215098539659" selected="yes">
			<activity type="home" link="56123" x="605271.0890872169" y="5792626.933222967" end_time="07:30:00" >
			</activity>
			<leg mode="drt" dep_time="07:30:00" trav_time="00:06:28">
				<route type="generic" start_link="56123" end_link="52060" trav_time="00:06:28" distance="3239.9442326477697"></route>
			</leg>
			<activity type="train08" link="52060" >
			</activity>
		</plan>

	</person>

<!-- ====================================================================== -->

	<person id="p_7">
		<plan score="44.90215098539659" selected="yes">
			<activity type="home" link="7376" x="605711.2239948179" y="5792340.351640435" end_time="07:30:00" >
			</activity>
			<leg mode="drt" dep_time="07:30:00" trav_time="00:06:03">
				<route type="generic" start_link="7376" end_link="52060" trav_time="00:06:03" distance="3028.8068634523797"></route>
			</leg>
			<activity type="train08" link="52060" >
			</activity>
		</plan>

	</person>

<!-- ====================================================================== -->

	<person id="p_8">
		<plan score="44.022150985396586" selected="yes">
			<activity type="home" link="55679" x="604835.0568026305" y="5792822.401584607" end_time="07:30:00" >
			</activity>
			<leg mode="drt" dep_time="07:30:00" trav_time="00:06:54">
				<route type="generic" start_link="55679" end_link="52060" trav_time="00:06:54" distance="3452.646086290161"></route>
			</leg>
			<activity type="train08" link="52060" >
			</activity>
		</plan>

	</person>

<!-- ====================================================================== -->

	<person id="p_9">
		<plan score="44.11548431872992" selected="yes">
			<activity type="home" link="622" x="605310.3475288656" y="5792171.007878694" end_time="07:30:00" >
			</activity>
			<leg mode="drt" dep_time="07:30:00" trav_time="00:05:20">
				<route type="generic" start_link="622" end_link="52060" trav_time="00:05:20" distance="2667.0010724352364"></route>
			</leg>
			<activity type="train08" link="52060" >
			</activity>
		</plan>

	</person>

<!-- ====================================================================== -->

</population>
